Circuit: * Z:\home\phs\sandbox\phisch\embedded\stm32f4discovery\blinkenlight\resources\Analog_Shift.asc


Date: Sun Jun 14 13:56:10 2015
Total elapsed time: 0.014 seconds.

tnom = 27
temp = 27
method = trap
totiter = 0
traniter = 0
tranpoints = 0
accept = 0
rejected = 0
matrix size = 6
fillins = 4
solver = Normal

